<edges>
    <edge id="north_in" from="north" to="center"/>
    <edge id="south_in" from="south" to="center"/>
    <edge id="east_in" from="east" to="center"/>
    <edge id="west_in" from="west" to="center"/>

    <edge id="north_out" from="center" to="north"/>
    <edge id="south_out" from="center" to="south"/>
    <edge id="east_out" from="center" to="east"/>
    <edge id="west_out" from="center" to="west"/>
</edges>