<nodes>
    <node id="center" x="0" y="0" type="traffic_light"/>
    <node id="north" x="0" y="200"/>
    <node id="south" x="0" y="-200"/>
    <node id="east" x="200" y="0"/>
    <node id="west" x="-200" y="0"/>
</nodes>